Test_T2_20_BD_20.fds
Generated by PyroSim 2024.1.0611
14 Aug 2024, 16:44:09

&HEAD CHID='Test_T2_20_BD_20'/
&TIME T_END=100.0/
&DUMP DT_HRR=5.0, DT_RESTART=300.0, DT_SL3D=0.25/

&MESH ID='MESH-01', IJK=9,13,14, XB=1.1,2.0,0.0,1.3,-0.2,1.2/
&MESH ID='MESH-02', IJK=9,13,14, XB=1.1,2.0,1.3,2.6,-0.2,1.2/
&MESH ID='MESH-03', IJK=8,13,14, XB=2.0,2.8,0.0,1.3,-0.2,1.2/
&MESH ID='MESH-04', IJK=8,13,14, XB=2.0,2.8,1.3,2.6,-0.2,1.2/
&MESH ID='MESH-05', IJK=9,13,14, XB=2.8,3.7,0.0,1.3,-0.2,1.2/
&MESH ID='MESH-06', IJK=9,13,14, XB=2.8,3.7,1.3,2.6,-0.2,1.2/

&SPEC ID='REAC_FUEL', FORMULA='C1.0H2.0O0.5N0.0'/

&REAC ID='14.8 MJ on kg',
      FUEL='REAC_FUEL',
      AUTO_IGNITION_TEMPERATURE=0.0,
      CO_YIELD=0.1,
      SOOT_YIELD=0.014,
      HEAT_OF_COMBUSTION=2.0E+4,
      RADIATIVE_FRACTION=0.35/

&MATL ID='Legno',
      SPECIFIC_HEAT=1.76,
      CONDUCTIVITY=0.12,
      DENSITY=181.0/

&SURF ID='Burner',
      COLOR='RED',
      HRRPUA=200.0,
      RAMP_Q='Burner_RAMP_Q',
      TMP_FRONT=300.0/
&RAMP ID='Burner_RAMP_Q', T=0.0, F=0.0/
&RAMP ID='Burner_RAMP_Q', T=20.0, F=1.0/
&RAMP ID='Burner_RAMP_Q', T=46.0, F=1.0/
&RAMP ID='Burner_RAMP_Q', T=66.0, F=0.0/
&SURF ID='Layered',
      RGB=146,202,166,
      HRRPUA=450.0,
      TAU_Q=-20.0,
      IGNITION_TEMPERATURE=250.0,
      BURN_AWAY=.TRUE.,
      MATL_ID(1,1)='Legno',
      MATL_MASS_FRACTION(1,1)=1.0,
      THICKNESS(1)=1.0/

&OBST ID='Burner', XB=1.6,1.8,1.5,1.7,-0.2,-0.1, SURF_IDS='Burner','INERT','INERT'/ 
&OBST ID='Burner', XB=3.0,3.2,0.9,1.1,-0.2,-0.1, SURF_IDS='Burner','INERT','INERT'/ 
&OBST ID='Burner', XB=1.6,1.8,0.9,1.1,-0.2,-0.1, SURF_IDS='Burner','INERT','INERT'/ 
&OBST ID='Burner', XB=2.0,2.2,0.5,0.7,-0.2,-0.1, SURF_IDS='Burner','INERT','INERT'/ 
&OBST ID='Burner', XB=3.0,3.2,1.5,1.7,-0.2,-0.1, SURF_IDS='Burner','INERT','INERT'/ 
&OBST ID='Burner', XB=2.0,2.2,1.9,2.1,-0.2,-0.1, SURF_IDS='Burner','INERT','INERT'/ 
&OBST ID='Burner', XB=2.6,2.8,1.9,2.1,-0.2,-0.1, SURF_IDS='Burner','INERT','INERT'/ 
&OBST ID='Burner', XB=2.6,2.8,0.5,0.7,-0.2,-0.1, SURF_IDS='Burner','INERT','INERT'/ 
&OBST ID='Obstruction', XB=2.4,3.0,0.7,1.3,-0.2,0.3, BULK_DENSITY=20.0, SURF_ID='Layered'/ 
&OBST ID='Obstruction', XB=2.4,3.0,1.3,1.9,-0.2,0.3, BULK_DENSITY=20.0, SURF_ID='Layered'/ 
&OBST ID='Obstruction', XB=1.8,2.4,0.7,1.3,-0.2,0.3, BULK_DENSITY=20.0, SURF_ID='Layered'/ 
&OBST ID='Obstruction', XB=1.8,2.4,1.3,1.9,-0.2,0.3, BULK_DENSITY=20.0, SURF_ID='Layered'/ 

&VENT ID='Mesh Vent: MESH [XMAX]', SURF_ID='OPEN', XB=3.7,3.7,0.0,2.6,-0.2,1.2/ 
&VENT ID='Mesh Vent: MESH [XMIN]', SURF_ID='OPEN', XB=1.1,1.1,0.0,2.6,-0.2,1.2/ 
&VENT ID='Mesh Vent: MESH [YMAX]', SURF_ID='OPEN', XB=1.1,3.7,2.6,2.6,-0.2,1.2/ 
&VENT ID='Mesh Vent: MESH [YMIN]', SURF_ID='OPEN', XB=1.1,3.7,0.0,0.0,-0.2,1.2/ 
&VENT ID='Mesh Vent: MESH [ZMAX]', SURF_ID='OPEN', XB=1.1,3.7,0.0,2.6,1.2,1.2/ 

&BNDF QUANTITY='BURNING RATE'/


&TAIL /
